@<TRIPOS>MOLECULE
UNL
   14    14     1     0     0
SMALL
bcc


@<TRIPOS>ATOM
      1 N            2.8530     0.7980    -0.0650 n2         1 UNL      -0.215500
      2 C            4.9000     1.7910     0.6740 ca         1 UNL      -0.199500
      3 C1           4.2040     0.7180     0.1180 ca         1 UNL       0.015000
      4 C2           6.2790     1.7070     0.8600 ca         1 UNL      -0.076000
      5 C3           6.9640     0.5500     0.4900 ca         1 UNL      -0.199500
      6 C4           6.2710    -0.5250    -0.0660 ca         1 UNL       0.015000
      7 C5           4.8900    -0.4400    -0.2520 ca         1 UNL       0.005000
      8 H            4.3720     2.6970     0.9650 ha         1 UNL       0.138000
      9 H1           6.8200     2.5440     1.2930 ha         1 UNL       0.136000
     10 H2           8.0400     0.4920     0.6390 ha         1 UNL       0.138000
     11 H3           4.3480    -1.2780    -0.6850 ha         1 UNL       0.172000
     12 H4           2.4100     1.6640     0.2230 hn         1 UNL       0.143000
     13 N1           6.9400    -1.6580    -0.4280 n2         1 UNL      -0.215500
     14 H5           7.9410    -1.6610    -0.2690 hn         1 UNL       0.143000
@<TRIPOS>BOND
     1     1     3 1   
     2     1    12 1   
     3     2     3 1   
     4     2     4 1   
     5     2     8 1   
     6     3     7 1   
     7     4     5 1   
     8     4     9 1   
     9     5     6 1   
    10     5    10 1   
    11     6     7 1   
    12     6    13 1   
    13     7    11 1   
    14    13    14 1   
@<TRIPOS>SUBSTRUCTURE
     1 UNL         1 TEMP              0 ****  ****    0 ROOT
