@<TRIPOS>MOLECULE
UNL
   16    16     1     0     0
SMALL
bcc


@<TRIPOS>ATOM
      1 N            2.8920     0.8050    -0.1470 nh         1 UNL      -0.820200
      2 C            4.9230     1.7970     0.6330 ca         1 UNL      -0.230000
      3 C1           4.2360     0.7170     0.0770 ca         1 UNL       0.171600
      4 C2           6.2950     1.7070     0.8620 ca         1 UNL      -0.060000
      5 C3           6.9830     0.5400     0.5360 ca         1 UNL      -0.230000
      6 C4           6.3000    -0.5410    -0.0210 ca         1 UNL       0.171600
      7 C5           4.9260    -0.4510    -0.2510 ca         1 UNL      -0.253000
      8 H            4.3930     2.7110     0.8900 ha         1 UNL       0.130000
      9 H1           6.8280     2.5490     1.2960 ha         1 UNL       0.127000
     10 H2           8.0540     0.4780     0.7190 ha         1 UNL       0.130000
     11 H3           4.3920    -1.2940    -0.6850 ha         1 UNL       0.130000
     12 H4           2.3800     1.5800     0.2590 hn         1 UNL       0.388300
     13 N1           6.9750    -1.6840    -0.3420 nh         1 UNL      -0.820200
     14 H5           7.9890    -1.6680    -0.3400 hn         1 UNL       0.388300
     15 H6           2.3800    -0.0390    -0.3780 hn         1 UNL       0.388300
     16 H7           6.5090    -2.3840    -0.9070 hn         1 UNL       0.388300
@<TRIPOS>BOND
     1     1     3 1   
     2     1    12 1   
     3     1    15 1   
     4     2     3 ar  
     5     2     4 ar  
     6     2     8 1   
     7     3     7 ar  
     8     4     5 ar  
     9     4     9 1   
    10     5     6 ar  
    11     5    10 1   
    12     6     7 ar  
    13     6    13 1   
    14     7    11 1   
    15    13    14 1   
    16    13    16 1   
@<TRIPOS>SUBSTRUCTURE
     1 UNL         1 TEMP              0 ****  ****    0 ROOT
