@<TRIPOS>MOLECULE
UNL
   15    15     1     0     0
SMALL
bcc


@<TRIPOS>ATOM
      1 N            2.8710     0.7600    -0.0840 n2         1 UNL      -0.746400
      2 C            4.9110     1.7700     0.6540 ca         1 UNL      -0.366000
      3 C1           4.2200     0.6850     0.1130 ca         1 UNL       0.211600
      4 C2           6.2880     1.6900     0.8540 ca         1 UNL      -0.034000
      5 C3           6.9770     0.5270     0.5150 ca         1 UNL      -0.380000
      6 C4           6.2900    -0.5590    -0.0260 ca         1 UNL       0.148600
      7 C5           4.9110    -0.4800    -0.2260 ca         1 UNL      -0.316000
      8 H            4.3800     2.6810     0.9210 ha         1 UNL       0.081000
      9 H1           6.8250     2.5360     1.2760 ha         1 UNL       0.067000
     10 H2           8.0520     0.4730     0.6750 ha         1 UNL       0.086000
     11 H3           4.3710    -1.3260    -0.6470 ha         1 UNL       0.101000
     12 H4           2.4250     1.6310     0.1830 hn         1 UNL       0.273800
     13 N1           6.9660    -1.6990    -0.3580 nh         1 UNL      -0.801200
     14 H5           7.9790    -1.6770    -0.3770 hn         1 UNL       0.336300
     15 H6           6.4900    -2.4050    -0.9090 hn         1 UNL       0.336300
@<TRIPOS>BOND
     1     1     3 1   
     2     1    12 1   
     3     2     3 ar  
     4     2     4 ar  
     5     2     8 1   
     6     3     7 ar  
     7     4     5 ar  
     8     4     9 1   
     9     5     6 ar  
    10     5    10 1   
    11     6     7 ar  
    12     6    13 1   
    13     7    11 1   
    14    13    14 1   
    15    13    15 1   
@<TRIPOS>SUBSTRUCTURE
     1 UNL         1 TEMP              0 ****  ****    0 ROOT
