@<TRIPOS>MOLECULE
UNL
   52    54     1     0     0
SMALL
bcc


@<TRIPOS>ATOM
      1 C           -1.1080     1.6620    -0.5810 ca         1 UNL      -0.163850
      2 C1          -2.1560     0.7660    -0.2970 ca         1 UNL       0.007000
      3 C2           0.2380     1.1890    -0.4260 ca         1 UNL      -0.015500
      4 C3           0.5280    -0.1530    -0.0460 ca         1 UNL      -0.171600
      5 C4          -0.5780    -0.9830     0.1800 ca         1 UNL      -0.015500
      6 C5          -1.8990    -0.5530     0.0920 ca         1 UNL      -0.163850
      7 H           -3.1880     1.0960    -0.3800 ha         1 UNL       0.185000
      8 H1           1.0640     1.8700    -0.6190 ha         1 UNL       0.172500
      9 H2          -0.4180    -2.0150     0.4790 ha         1 UNL       0.172500
     10 C6           1.8930    -0.8590     0.1930 c          1 UNL       0.681200
     11 O            1.8990    -2.0440     0.4690 o          1 UNL      -0.573100
     12 N            3.1250    -0.2590     0.2100 n          1 UNL      -0.465100
     13 C7           4.2420    -0.9410     2.2780 ca         1 UNL      -0.187500
     14 C8           4.2860    -0.8700     0.8840 ca         1 UNL       0.089600
     15 C9           5.2590    -1.5610     3.0010 ca         1 UNL      -0.079000
     16 C10          6.3550    -2.1290     2.3550 ca         1 UNL      -0.187500
     17 C11          6.4530    -2.0990     0.9630 ca         1 UNL       0.089600
     18 C12          5.4070    -1.4570     0.2360 ca         1 UNL      -0.206000
     19 H3           3.3940    -0.5190     2.8140 ha         1 UNL       0.154500
     20 H4           5.1990    -1.5980     4.0860 ha         1 UNL       0.140000
     21 H5           7.1410    -2.5770     2.9580 ha         1 UNL       0.154500
     22 H6           5.4650    -1.4150    -0.8490 ha         1 UNL       0.170000
     23 H7           3.1850     0.7310     0.0290 hn         1 UNL       0.324000
     24 C13         -1.4550     3.0980    -1.0410 c          1 UNL       0.648200
     25 C14         -2.9750    -1.5580     0.4490 c          1 UNL       0.648200
     26 O1          -2.7340    -2.6990     0.7870 o          1 UNL      -0.522250
     27 O2          -4.2140    -1.1540     0.4400 oh         1 UNL      -0.594600
     28 O3          -0.5910     3.9110    -1.2960 o          1 UNL      -0.522250
     29 O4          -2.7470     3.4290    -1.1730 oh         1 UNL      -0.594600
     30 N1           7.6610    -2.5890     0.2920 n          1 UNL      -0.465100
     31 H8          -2.9560     4.3750    -1.4940 ho         1 UNL       0.448000
     32 H9          -4.7290    -1.9360     0.7520 ho         1 UNL       0.448000
     33 C15          8.7440    -3.3650     0.6870 c          1 UNL       0.681200
     34 H10          7.7550    -2.1710    -0.6170 hn         1 UNL       0.324000
     35 C16         10.0290    -3.2740    -0.1650 ca         1 UNL      -0.171600
     36 C17         11.2360    -4.0190     0.0020 ca         1 UNL      -0.015500
     37 C18         12.3980    -3.8220    -0.8170 ca         1 UNL      -0.163850
     38 C19         10.0210    -2.3140    -1.1610 ca         1 UNL      -0.015500
     39 C20         11.1240    -2.0410    -1.9480 ca         1 UNL      -0.163850
     40 C21         12.3030    -2.8040    -1.7910 ca         1 UNL       0.007000
     41 C22         10.9770    -0.9000    -2.9270 c          1 UNL       0.648200
     42 C23         13.7000    -4.6770    -0.6290 c          1 UNL       0.648200
     43 H11         11.2700    -4.7740     0.7840 ha         1 UNL       0.172500
     44 H12         13.1620    -2.5920    -2.4240 ha         1 UNL       0.185000
     45 H13          9.1330    -1.7210    -1.3090 ha         1 UNL       0.172500
     46 O5           8.6920    -4.0710     1.6730 o          1 UNL      -0.573100
     47 O6          11.8750    -0.5790    -3.6780 o          1 UNL      -0.522250
     48 O7           9.8270    -0.2260    -2.9210 oh         1 UNL      -0.594600
     49 H14          9.1610    -0.5350    -2.2390 ho         1 UNL       0.448000
     50 O8          14.7860    -4.4840    -1.4060 oh         1 UNL      -0.594600
     51 H15         15.6220    -5.0870    -1.2410 ho         1 UNL       0.448000
     52 O9          13.7470    -5.5390     0.2230 o          1 UNL      -0.522250
@<TRIPOS>BOND
     1     1     2 ar  
     2     1     3 ar  
     3     1    24 1   
     4     2     6 ar  
     5     2     7 1   
     6     3     4 ar  
     7     3     8 1   
     8     4     5 ar  
     9     4    10 1   
    10     5     6 ar  
    11     5     9 1   
    12     6    25 1   
    13    10    11 2   
    14    10    12 1   
    15    12    14 1   
    16    12    23 1   
    17    13    14 ar  
    18    13    15 ar  
    19    13    19 1   
    20    14    18 ar  
    21    15    16 ar  
    22    15    20 1   
    23    16    17 ar  
    24    16    21 1   
    25    17    18 ar  
    26    17    30 1   
    27    18    22 1   
    28    24    28 2   
    29    24    29 1   
    30    25    26 2   
    31    25    27 1   
    32    27    32 1   
    33    29    31 1   
    34    30    33 1   
    35    30    34 1   
    36    33    35 1   
    37    33    46 2   
    38    35    36 ar  
    39    35    38 ar  
    40    36    37 ar  
    41    36    43 1   
    42    37    40 ar  
    43    37    42 1   
    44    38    39 ar  
    45    38    45 1   
    46    39    40 ar  
    47    39    41 1   
    48    40    44 1   
    49    41    47 2   
    50    41    48 1   
    51    42    50 1   
    52    42    52 2   
    53    48    49 1   
    54    50    51 1   
@<TRIPOS>SUBSTRUCTURE
     1 UNL         1 TEMP              0 ****  ****    0 ROOT
