@<TRIPOS>MOLECULE
UNL
   47    49     1     0     0
SMALL
bcc


@<TRIPOS>ATOM
      1 C           -1.6570     1.3570    -0.5960 ca         1 UNL      -0.148600
      2 C1          -2.5850     0.3830    -0.2130 ca         1 UNL      -0.031000
      3 C2          -0.2980     1.1310    -0.3640 ca         1 UNL      -0.031000
      4 C3           0.1430    -0.0500     0.2440 ca         1 UNL      -0.168600
      5 C4          -0.8030    -1.0080     0.6170 ca         1 UNL       0.003000
      6 C5          -2.1690    -0.8070     0.3960 ca         1 UNL      -0.168600
      7 H           -3.6410     0.5570    -0.3950 ha         1 UNL       0.167000
      8 H1           0.4160     1.8920    -0.6660 ha         1 UNL       0.167000
      9 H2          -0.4700    -1.9300     1.0900 ha         1 UNL       0.184000
     10 C6           1.6030    -0.3190     0.5060 c          1 UNL       0.680200
     11 O            1.9850    -1.3420     1.0400 o          1 UNL      -0.570600
     12 N            2.4750     0.6490     0.1370 n          1 UNL      -0.466600
     13 C7           4.5300     1.8120     0.7270 ca         1 UNL      -0.208500
     14 C8           3.8980     0.6470     0.2940 ca         1 UNL       0.101100
     15 C9           5.9160     1.8470     0.8690 ca         1 UNL      -0.068500
     16 C10          6.6780     0.7190     0.5710 ca         1 UNL      -0.214000
     17 C11          6.0530    -0.4450     0.1250 ca         1 UNL       0.166600
     18 C12          4.6650    -0.4800    -0.0180 ca         1 UNL      -0.232000
     19 H3           3.9440     2.6980     0.9610 ha         1 UNL       0.151000
     20 H4           6.4040     2.7560     1.2130 ha         1 UNL       0.133000
     21 H5           7.7590     0.7540     0.6830 ha         1 UNL       0.134000
     22 H6           4.1840    -1.3860    -0.3780 ha         1 UNL       0.149000
     23 H7           2.0930     1.5060    -0.2300 hn         1 UNL       0.319000
     24 C13         -2.0860     2.6420    -1.2510 c          1 UNL       0.650700
     25 C14         -3.1450    -1.8750     0.8190 c          1 UNL       0.680200
     26 O1          -2.7840    -2.9040     1.3560 o          1 UNL      -0.570600
     27 N1          -4.4560    -1.6230     0.5940 n          1 UNL      -0.466600
     28 O2          -1.3130     3.5110    -1.5970 o          1 UNL      -0.543000
     29 O3          -3.3710     2.7830    -1.4350 oh         1 UNL      -0.607100
     30 N2           6.8000    -1.5480    -0.1760 nh         1 UNL      -0.821700
     31 H8           7.7720    -1.5700     0.1110 hn         1 UNL       0.392550
     32 H9           6.3240    -2.4330    -0.3120 hn         1 UNL       0.392550
     33 C15         -5.5740    -2.4540     0.9230 ca         1 UNL       0.101100
     34 H10         -4.6990    -0.7200     0.2170 hn         1 UNL       0.319000
     35 C16         -6.7160    -1.8660     1.4690 ca         1 UNL      -0.232000
     36 C17         -7.8300    -2.6470     1.7810 ca         1 UNL       0.166600
     37 C18         -7.8060    -4.0200     1.5380 ca         1 UNL      -0.214000
     38 C19         -6.6720    -4.6090     0.9810 ca         1 UNL      -0.068500
     39 C20         -5.5610    -3.8290     0.6690 ca         1 UNL      -0.208500
     40 H11         -6.7350    -0.7950     1.6580 ha         1 UNL       0.149000
     41 H12         -8.6690    -4.6360     1.7790 ha         1 UNL       0.134000
     42 H13         -6.6560    -5.6780     0.7860 ha         1 UNL       0.133000
     43 H14         -4.6870    -4.2990     0.2230 ha         1 UNL       0.151000
     44 N3          -8.9430    -2.0680     2.3210 nh         1 UNL      -0.821700
     45 H15         -9.0150    -1.0570     2.3290 hn         1 UNL       0.392550
     46 H16         -9.7970    -2.6110     2.3790 hn         1 UNL       0.392550
     47 H17         -3.4900     3.6510    -1.8620 ho         1 UNL       0.453000
@<TRIPOS>BOND
     1     1     2 ar  
     2     1     3 ar  
     3     1    24 1   
     4     2     6 ar  
     5     2     7 1   
     6     3     4 ar  
     7     3     8 1   
     8     4     5 ar  
     9     4    10 1   
    10     5     6 ar  
    11     5     9 1   
    12     6    25 1   
    13    10    11 2   
    14    10    12 1   
    15    12    14 1   
    16    12    23 1   
    17    13    14 ar  
    18    13    15 ar  
    19    13    19 1   
    20    14    18 ar  
    21    15    16 ar  
    22    15    20 1   
    23    16    17 ar  
    24    16    21 1   
    25    17    18 ar  
    26    17    30 1   
    27    18    22 1   
    28    24    28 2   
    29    24    29 1   
    30    25    26 2   
    31    25    27 1   
    32    27    33 1   
    33    27    34 1   
    34    29    47 1   
    35    30    31 1   
    36    30    32 1   
    37    33    35 ar  
    38    33    39 ar  
    39    35    36 ar  
    40    35    40 1   
    41    36    37 ar  
    42    36    44 1   
    43    37    38 ar  
    44    37    41 1   
    45    38    39 ar  
    46    38    42 1   
    47    39    43 1   
    48    44    45 1   
    49    44    46 1   
@<TRIPOS>SUBSTRUCTURE
     1 UNL         1 TEMP              0 ****  ****    0 ROOT
