@<TRIPOS>MOLECULE
UNL
   15    15     1     0     0
SMALL
bcc


@<TRIPOS>ATOM
      1 C           -8.6710     2.5620    -0.0480 ca         1 UNL       0.151000
      2 C1          -7.4100     3.1560    -0.0050 ca         1 UNL      -0.139000
      3 C2          -6.2680     2.3530     0.0220 ca         1 UNL       0.151000
      4 C3          -8.7960     1.1730    -0.0640 ca         1 UNL      -0.139000
      5 C4          -7.6500     0.3750    -0.0370 ca         1 UNL       0.151000
      6 C5          -6.3840     0.9640     0.0060 ca         1 UNL      -0.139000
      7 H           -9.5620     3.1860    -0.0690 ha         1 UNL       0.247000
      8 H1          -5.2810     2.8110     0.0550 ha         1 UNL       0.247000
      9 H2          -7.7440    -0.7090    -0.0500 ha         1 UNL       0.247000
     10 C6         -10.1570     0.5630    -0.1100 c1         1 UNL       0.457000
     11 C7          -5.1490     0.1270     0.0350 c1         1 UNL       0.457000
     12 C8          -7.3010     4.6440     0.0110 c1         1 UNL       0.457000
     13 O           -6.2530     5.2580     0.0480 o          1 UNL       0.285000
     14 O1         -10.3790    -0.6310    -0.1270 o          1 UNL       0.285000
     15 O2          -5.1360    -1.0870     0.0250 o          1 UNL       0.285000
@<TRIPOS>BOND
     1     1     2 1   
     2     1     4 1   
     3     1     7 1   
     4     2     3 1   
     5     2    12 1   
     6     3     6 1   
     7     3     8 1   
     8     4     5 1   
     9     4    10 1   
    10     5     6 1   
    11     5     9 1   
    12     6    11 1   
    13    10    14 1   
    14    11    15 1   
    15    12    13 1   
@<TRIPOS>SUBSTRUCTURE
     1 UNL         1 TEMP              0 ****  ****    0 ROOT
