@<TRIPOS>MOLECULE
UNL
   16    16     1     0     0
SMALL
bcc


@<TRIPOS>ATOM
      1 C           -7.0890     2.9760    -0.0000 ca         1 UNL      -0.204500
      2 C1          -5.8700     3.6660    -0.0000 ca         1 UNL      -0.095000
      3 C2          -4.6790     2.9330    -0.0000 ca         1 UNL      -0.204500
      4 C3          -7.1160     1.5820    -0.0000 ca         1 UNL      -0.097000
      5 C4          -5.9190     0.8640    -0.0000 ca         1 UNL      -0.224000
      6 C5          -4.6980     1.5390    -0.0000 ca         1 UNL      -0.097000
      7 H           -8.0320     3.5180    -0.0000 ha         1 UNL       0.094500
      8 H1          -3.7220     3.4510     0.0000 ha         1 UNL       0.094500
      9 H2          -5.9380    -0.2240    -0.0000 ha         1 UNL       0.070000
     10 C6          -8.4320     0.8780    -0.0000 c1         1 UNL      -0.162500
     11 C7          -3.4070     0.7910    -0.0000 c1         1 UNL      -0.162500
     12 C8          -5.8100     5.1700     0.0000 c2         1 UNL       0.352000
     13 O           -4.7690     5.7960     0.0000 o          1 UNL      -0.641000
     14 O1          -8.5690    -0.3290    -0.0000 o          1 UNL      -0.540500
     15 O2          -3.3120    -0.4200    -0.0000 o          1 UNL      -0.540500
     16 O3          -6.9680     5.7780     0.0000 o          1 UNL      -0.641000
@<TRIPOS>BOND
     1     1     2 1   
     2     1     4 1   
     3     1     7 1   
     4     2     3 1   
     5     2    12 1   
     6     3     6 1   
     7     3     8 1   
     8     4     5 1   
     9     4    10 1   
    10     5     6 1   
    11     5     9 1   
    12     6    11 1   
    13    10    14 1   
    14    11    15 1   
    15    12    13 1   
    16    12    16 1   
@<TRIPOS>SUBSTRUCTURE
     1 UNL         1 TEMP              0 ****  ****    0 ROOT
