@<TRIPOS>MOLECULE
UNL
   34    35     1     0     0
SMALL
bcc


@<TRIPOS>ATOM
      1 C           -1.3210     1.8110    -0.4760 ca         1 UNL      -0.158100
      2 C1          -2.3040     0.8590    -0.1690 ca         1 UNL       0.008000
      3 C2           0.0240     1.4810    -0.2950 ca         1 UNL      -0.006000
      4 C3           0.4040     0.2230     0.1870 ca         1 UNL      -0.176600
      5 C4          -0.5920    -0.7080     0.4850 ca         1 UNL      -0.006000
      6 C5          -1.9460    -0.4080     0.3140 ca         1 UNL      -0.158100
      7 H           -3.3540     1.1050    -0.3070 ha         1 UNL       0.184000
      8 H1           0.7810     2.2220    -0.5360 ha         1 UNL       0.178000
      9 H2          -0.3080    -1.6890     0.8590 ha         1 UNL       0.178000
     10 C6           1.8480    -0.1550     0.3910 c          1 UNL       0.680700
     11 O            2.1750    -1.2460     0.8170 o          1 UNL      -0.576100
     12 N            2.7720     0.7910     0.1000 n          1 UNL      -0.465100
     13 C7           4.9020     1.7690     0.7580 ca         1 UNL      -0.223000
     14 C8           4.1940     0.6900     0.2280 ca         1 UNL       0.099600
     15 C9           6.2890     1.7080     0.8760 ca         1 UNL      -0.067000
     16 C10          6.9770     0.5710     0.4560 ca         1 UNL      -0.215000
     17 C11          6.2770    -0.5060    -0.0860 ca         1 UNL       0.168600
     18 C12          4.8880    -0.4450    -0.2050 ca         1 UNL      -0.216000
     19 H3           4.3740     2.6610     1.0870 ha         1 UNL       0.130000
     20 H4           6.8360     2.5490     1.2950 ha         1 UNL       0.131000
     21 H5           8.0600     0.5320     0.5510 ha         1 UNL       0.134000
     22 H6           4.3480    -1.2820    -0.6410 ha         1 UNL       0.170000
     23 H7           2.4380     1.7010    -0.1750 hn         1 UNL       0.321500
     24 C13         -1.6560     3.1850    -0.9980 c          1 UNL       0.651700
     25 C14         -2.9640    -1.4650     0.6570 c          1 UNL       0.651700
     26 O1          -2.6710    -2.5660     1.0760 o          1 UNL      -0.542500
     27 O2          -4.2180    -1.1460     0.4830 oh         1 UNL      -0.603600
     28 O3          -0.8170     4.0200    -1.2670 o          1 UNL      -0.542500
     29 O4          -2.9230     3.4580    -1.1540 oh         1 UNL      -0.603600
     30 N1           6.9520    -1.6170    -0.5060 nh         1 UNL      -0.823200
     31 H8           7.9250    -1.7230    -0.2420 hn         1 UNL       0.394800
     32 H9           6.4210    -2.4550    -0.7170 hn         1 UNL       0.394800
     33 H10         -2.9560     4.3750    -1.4940 ho         1 UNL       0.453000
     34 H11         -4.7290    -1.9360     0.7520 ho         1 UNL       0.453000
@<TRIPOS>BOND
     1     1     2 ar  
     2     1     3 ar  
     3     1    24 1   
     4     2     6 ar  
     5     2     7 1   
     6     3     4 ar  
     7     3     8 1   
     8     4     5 ar  
     9     4    10 1   
    10     5     6 ar  
    11     5     9 1   
    12     6    25 1   
    13    10    11 2   
    14    10    12 1   
    15    12    14 1   
    16    12    23 1   
    17    13    14 ar  
    18    13    15 ar  
    19    13    19 1   
    20    14    18 ar  
    21    15    16 ar  
    22    15    20 1   
    23    16    17 ar  
    24    16    21 1   
    25    17    18 ar  
    26    17    30 1   
    27    18    22 1   
    28    24    28 2   
    29    24    29 1   
    30    25    26 2   
    31    25    27 1   
    32    27    34 1   
    33    29    33 1   
    34    30    31 1   
    35    30    32 1   
@<TRIPOS>SUBSTRUCTURE
     1 UNL         1 TEMP              0 ****  ****    0 ROOT
