@<TRIPOS>MOLECULE
UNL
   15    15     1     0     0
SMALL
bcc


@<TRIPOS>ATOM
      1 C           -7.1880     2.9340    -0.0000 ca         1 UNL      -0.380000
      2 C1          -5.9820     3.6330     0.0000 ca         1 UNL      -0.034000
      3 C2          -4.7720     2.9410     0.0000 ca         1 UNL      -0.366000
      4 C3          -7.1860     1.5390    -0.0000 ca         1 UNL       0.148600
      5 C4          -5.9750     0.8460    -0.0000 ca         1 UNL      -0.316000
      6 C5          -4.7670     1.5460    -0.0000 ca         1 UNL       0.211600
      7 H           -8.1280     3.4820    -0.0000 ha         1 UNL       0.086000
      8 H1          -5.9850     4.7200     0.0000 ha         1 UNL       0.067000
      9 H2          -3.8360     3.4940     0.0000 ha         1 UNL       0.081000
     10 N           -3.5840     0.8640    -0.0000 n2         1 UNL      -0.746400
     11 N1          -8.3680     0.8550    -0.0000 nh         1 UNL      -0.801200
     12 H3          -5.9700    -0.2420    -0.0000 ha         1 UNL       0.101000
     13 H4          -9.2480     1.3570     0.0000 hn         1 UNL       0.336300
     14 H5          -2.7410     1.4280    -0.0000 hn         1 UNL       0.273800
     15 H6          -8.3690    -0.1590     0.0000 hn         1 UNL       0.336300
@<TRIPOS>BOND
     1     1     2 ar  
     2     1     4 ar  
     3     1     7 1   
     4     2     3 ar  
     5     2     8 1   
     6     3     6 ar  
     7     3     9 1   
     8     4     5 ar  
     9     4    11 1   
    10     5     6 ar  
    11     5    12 1   
    12     6    10 1   
    13    10    14 1   
    14    11    13 1   
    15    11    15 1   
@<TRIPOS>SUBSTRUCTURE
     1 UNL         1 TEMP              0 ****  ****    0 ROOT
