@<TRIPOS>MOLECULE
UNL
   31    32     1     0     0
SMALL
bcc


@<TRIPOS>ATOM
      1 C           -1.3210     1.8110    -0.4760 ca         1 UNL      -0.090000
      2 C1          -2.3040     0.8590    -0.1690 ca         1 UNL      -0.036000
      3 C2           0.0240     1.4810    -0.2950 ca         1 UNL      -0.089000
      4 C3           0.4040     0.2230     0.1870 ca         1 UNL      -0.101000
      5 C4          -0.5920    -0.7080     0.4850 ca         1 UNL      -0.047000
      6 C5          -1.9460    -0.4080     0.3140 ca         1 UNL      -0.149000
      7 H           -3.3540     1.1050    -0.3070 ha         1 UNL       0.164000
      8 H1           0.7810     2.2220    -0.5360 ha         1 UNL       0.170000
      9 H2          -0.3080    -1.6890     0.8590 ha         1 UNL       0.169000
     10 C6           1.8480    -0.1550     0.3910 c2         1 UNL       0.346000
     11 O            2.1750    -1.2460     0.8170 o          1 UNL      -0.336000
     12 N            2.7720     0.7910     0.1000 n          1 UNL      -0.317000
     13 C7           4.9020     1.7690     0.7580 ca         1 UNL      -0.193000
     14 C8           4.1940     0.6900     0.2280 ca         1 UNL       0.065000
     15 C9           6.2890     1.7080     0.8760 ca         1 UNL      -0.090000
     16 C10          6.9770     0.5710     0.4560 ca         1 UNL      -0.207000
     17 C11          6.2770    -0.5060    -0.0860 ca         1 UNL       0.041000
     18 C12          4.8880    -0.4450    -0.2050 ca         1 UNL      -0.140000
     19 H3           4.3740     2.6610     1.0870 ha         1 UNL       0.129000
     20 H4           6.8360     2.5490     1.2950 ha         1 UNL       0.128000
     21 H5           8.0600     0.5320     0.5510 ha         1 UNL       0.129000
     22 H6           4.3480    -1.2820    -0.6410 ha         1 UNL       0.179000
     23 H7           2.4380     1.7010    -0.1750 hn         1 UNL       0.234000
     24 C13         -1.6560     3.1850    -0.9980 c2         1 UNL       0.350000
     25 C14         -2.9640    -1.4650     0.6570 c1         1 UNL       0.267000
     26 O1          -2.6710    -2.5660     1.0760 o          1 UNL      -0.056000
     27 O2          -0.8170     4.0200    -1.2670 o          1 UNL      -0.348000
     28 O3          -2.9230     3.4580    -1.1540 oh         1 UNL      -0.318000
     29 N1           6.9520    -1.6170    -0.5060 n2         1 UNL      -0.235000
     30 H8           7.9250    -1.7230    -0.2420 hn         1 UNL       0.127000
     31 H9          -2.9560     4.3750    -1.4940 ho         1 UNL       0.253000
@<TRIPOS>BOND
     1     1     2 1   
     2     1     3 1   
     3     1    24 1   
     4     2     6 1   
     5     2     7 1   
     6     3     4 1   
     7     3     8 1   
     8     4     5 1   
     9     4    10 1   
    10     5     6 1   
    11     5     9 1   
    12     6    25 1   
    13    10    11 1   
    14    10    12 1   
    15    12    14 1   
    16    12    23 1   
    17    13    14 1   
    18    13    15 1   
    19    13    19 1   
    20    14    18 1   
    21    15    16 1   
    22    15    20 1   
    23    16    17 1   
    24    16    21 1   
    25    17    18 1   
    26    17    29 1   
    27    18    22 1   
    28    24    27 1   
    29    24    28 1   
    30    25    26 1   
    31    28    31 1   
    32    29    30 1   
@<TRIPOS>SUBSTRUCTURE
     1 UNL         1 TEMP              0 ****  ****    0 ROOT
