@<TRIPOS>MOLECULE
UNL
   60    63     1     0     0
SMALL
bcc


@<TRIPOS>ATOM
      1 C           -1.5670     1.6700    -0.5070 ca         1 UNL      -0.159267
      2 C1          -2.5330     0.7010    -0.2080 ca         1 UNL      -0.038333
      3 C2          -0.2200     1.3760    -0.2790 ca         1 UNL      -0.038333
      4 C3           0.1730     0.1380     0.2420 ca         1 UNL      -0.159267
      5 C4          -0.8100    -0.8110     0.5320 ca         1 UNL      -0.038333
      6 C5          -2.1640    -0.5450     0.3140 ca         1 UNL      -0.159267
      7 H           -3.5810     0.9180    -0.3860 ha         1 UNL       0.165333
      8 H1           0.5260     2.1300    -0.5140 ha         1 UNL       0.165333
      9 H2          -0.5150    -1.7770     0.9370 ha         1 UNL       0.165333
     10 C6           1.6190    -0.2010     0.4970 c          1 UNL       0.679367
     11 O            1.9590    -1.2740     0.9560 o          1 UNL      -0.569100
     12 N            2.5280     0.7610     0.2110 n          1 UNL      -0.467433
     13 C7           4.6130     1.8080     0.9050 ca         1 UNL      -0.202667
     14 C8           3.9480     0.6980     0.3830 ca         1 UNL       0.100933
     15 C9           5.9970     1.7850     1.0650 ca         1 UNL      -0.068333
     16 C10          6.7250     0.6560     0.6940 ca         1 UNL      -0.213000
     17 C11          6.0680    -0.4510     0.1590 ca         1 UNL       0.166600
     18 C12          4.6820    -0.4290    -0.0010 ca         1 UNL      -0.238000
     19 H3           4.0530     2.6940     1.1960 ha         1 UNL       0.158000
     20 H4           6.5100     2.6500     1.4780 ha         1 UNL       0.134333
     21 H5           7.8050     0.6460     0.8210 ha         1 UNL       0.134333
     22 H6           4.1760    -1.2900    -0.4310 ha         1 UNL       0.140000
     23 H7           2.1800     1.6550    -0.0940 hn         1 UNL       0.315500
     24 C13         -1.9330     3.0200    -1.0690 c          1 UNL       0.679367
     25 C14         -3.1810    -1.6080     0.6450 c          1 UNL       0.679367
     26 O1          -2.8610    -2.6870     1.1040 o          1 UNL      -0.569100
     27 N1          -4.4810    -1.2960     0.4300 n          1 UNL      -0.467433
     28 O2          -1.0930     3.8630    -1.3210 o          1 UNL      -0.569100
     29 N2          -3.2510     3.2660    -1.2570 n          1 UNL      -0.467433
     30 N3           6.7820    -1.5550    -0.2120 nh         1 UNL      -0.821533
     31 H8           7.7490    -1.6300     0.0830 hn         1 UNL       0.391633
     32 H9           6.2780    -2.4110    -0.4170 hn         1 UNL       0.391633
     33 C15         -5.6280    -2.1140     0.6840 ca         1 UNL       0.100933
     34 H10         -4.6920    -0.3600     0.1240 hn         1 UNL       0.315500
     35 C16         -6.7530    -1.5370     1.2740 ca         1 UNL      -0.238000
     36 C17         -7.8940    -2.3040     1.5140 ca         1 UNL       0.166600
     37 C18         -7.9130    -3.6520     1.1550 ca         1 UNL      -0.213000
     38 C19         -6.7960    -4.2280     0.5540 ca         1 UNL      -0.068333
     39 C20         -5.6580    -3.4620     0.3140 ca         1 UNL      -0.202667
     40 H11         -6.7390    -0.4860     1.5540 ha         1 UNL       0.140000
     41 H12         -8.7980    -4.2570     1.3400 ha         1 UNL       0.134333
     42 H13         -6.8140    -5.2770     0.2700 ha         1 UNL       0.134333
     43 H14         -4.7970    -3.9210    -0.1670 ha         1 UNL       0.158000
     44 N4          -8.9910    -1.7370     2.0980 nh         1 UNL      -0.821533
     45 H15         -9.0290    -0.7290     2.1960 hn         1 UNL       0.391633
     46 H16         -9.8620    -2.2560     2.1100 hn         1 UNL       0.391633
     47 C21         -3.8520     4.4670    -1.7500 ca         1 UNL       0.100933
     48 H17         -3.9050     2.5610    -0.9560 hn         1 UNL       0.315500
     49 C22         -4.9990     4.9570    -1.1220 ca         1 UNL      -0.238000
     50 C23         -5.6200     6.1150    -1.5930 ca         1 UNL       0.166600
     51 C24         -3.3410     5.1330    -2.8680 ca         1 UNL      -0.202667
     52 C25         -3.9610     6.2890    -3.3370 ca         1 UNL      -0.068333
     53 C26         -5.0970     6.7820    -2.7000 ca         1 UNL      -0.213000
     54 H18         -5.4070     4.4370    -0.2580 ha         1 UNL       0.140000
     55 H19         -5.5740     7.6860    -3.0730 ha         1 UNL       0.134333
     56 H20         -2.4610     4.7530    -3.3810 ha         1 UNL       0.158000
     57 H21         -3.5570     6.8070    -4.2040 ha         1 UNL       0.134333
     58 N5          -6.7380     6.5940    -0.9720 nh         1 UNL      -0.821533
     59 H22         -7.2050     6.0130    -0.2840 hn         1 UNL       0.391633
     60 H23         -7.2720     7.3290    -1.4220 hn         1 UNL       0.391633
@<TRIPOS>BOND
     1     1     2 ar  
     2     1     3 ar  
     3     1    24 1   
     4     2     6 ar  
     5     2     7 1   
     6     3     4 ar  
     7     3     8 1   
     8     4     5 ar  
     9     4    10 1   
    10     5     6 ar  
    11     5     9 1   
    12     6    25 1   
    13    10    11 2   
    14    10    12 1   
    15    12    14 1   
    16    12    23 1   
    17    13    14 ar  
    18    13    15 ar  
    19    13    19 1   
    20    14    18 ar  
    21    15    16 ar  
    22    15    20 1   
    23    16    17 ar  
    24    16    21 1   
    25    17    18 ar  
    26    17    30 1   
    27    18    22 1   
    28    24    28 2   
    29    24    29 1   
    30    25    26 2   
    31    25    27 1   
    32    27    33 1   
    33    27    34 1   
    34    29    47 1   
    35    29    48 1   
    36    30    31 1   
    37    30    32 1   
    38    33    35 ar  
    39    33    39 ar  
    40    35    36 ar  
    41    35    40 1   
    42    36    37 ar  
    43    36    44 1   
    44    37    38 ar  
    45    37    41 1   
    46    38    39 ar  
    47    38    42 1   
    48    39    43 1   
    49    44    45 1   
    50    44    46 1   
    51    47    49 ar  
    52    47    51 ar  
    53    49    50 ar  
    54    49    54 1   
    55    50    53 ar  
    56    50    58 1   
    57    51    52 ar  
    58    51    56 1   
    59    52    53 ar  
    60    52    57 1   
    61    53    55 1   
    62    58    59 1   
    63    58    60 1   
@<TRIPOS>SUBSTRUCTURE
     1 UNL         1 TEMP              0 ****  ****    0 ROOT
