@<TRIPOS>MOLECULE
UNL
   17    17     1     0     0
SMALL
bcc


@<TRIPOS>ATOM
      1 C           -7.1290     2.9350    -0.0000 ca         1 UNL      -0.146000
      2 C1          -5.9170     3.6370     0.0000 ca         1 UNL      -0.117000
      3 C2          -4.7180     2.9180    -0.0000 ca         1 UNL      -0.162500
      4 C3          -7.1510     1.5340     0.0000 ca         1 UNL      -0.117000
      5 C4          -5.9390     0.8390    -0.0000 ca         1 UNL      -0.162500
      6 C5          -4.7250     1.5260     0.0000 ca         1 UNL      -0.121000
      7 H           -8.0670     3.4850    -0.0000 ha         1 UNL       0.119000
      8 H1          -3.7660     3.4450     0.0000 ha         1 UNL       0.100000
      9 H2          -5.9380    -0.2500     0.0000 ha         1 UNL       0.100000
     10 C6          -8.4420     0.7600    -0.0000 c2         1 UNL       0.355500
     11 C7          -3.4270     0.7890    -0.0000 c1         1 UNL      -0.151000
     12 C8          -5.8690     5.1420     0.0000 c2         1 UNL       0.355500
     13 O           -4.8330     5.7750     0.0000 o          1 UNL      -0.631500
     14 O1          -8.4930    -0.4540    -0.0000 o          1 UNL      -0.631500
     15 O2          -3.3220    -0.4210    -0.0000 o          1 UNL      -0.526000
     16 O3          -7.0310     5.7420     0.0000 o          1 UNL      -0.631500
     17 O4          -9.5320     1.4830    -0.0000 o          1 UNL      -0.631500
@<TRIPOS>BOND
     1     1     2 1   
     2     1     4 1   
     3     1     7 1   
     4     2     3 1   
     5     2    12 1   
     6     3     6 1   
     7     3     8 1   
     8     4     5 1   
     9     4    10 1   
    10     5     6 1   
    11     5     9 1   
    12     6    11 1   
    13    10    14 1   
    14    10    17 1   
    15    11    15 1   
    16    12    13 1   
    17    12    16 1   
@<TRIPOS>SUBSTRUCTURE
     1 UNL         1 TEMP              0 ****  ****    0 ROOT
