@<TRIPOS>MOLECULE
UNL
   14    14     1     0     0
SMALL
bcc


@<TRIPOS>ATOM
      1 C           -7.1800     2.9300     0.0000 ca         1 UNL      -0.199500
      2 C1          -5.9780     3.6360     0.0000 ca         1 UNL      -0.076000
      3 C2          -4.7650     2.9500    -0.0000 ca         1 UNL      -0.199500
      4 C3          -7.1700     1.5350    -0.0000 ca         1 UNL       0.015000
      5 C4          -5.9560     0.8490    -0.0000 ca         1 UNL       0.005000
      6 C5          -4.7520     1.5550    -0.0000 ca         1 UNL       0.015000
      7 H           -8.1230     3.4730     0.0000 ha         1 UNL       0.138000
      8 H1          -5.9870     4.7230     0.0000 ha         1 UNL       0.136000
      9 H2          -3.8310     3.5080    -0.0000 ha         1 UNL       0.138000
     10 N           -3.5650     0.8800    -0.0000 n2         1 UNL      -0.215500
     11 N1          -8.3470     0.8420    -0.0000 n2         1 UNL      -0.215500
     12 H3          -5.9470    -0.2400    -0.0000 ha         1 UNL       0.172000
     13 H4          -9.1960     1.3960    -0.0000 hn         1 UNL       0.143000
     14 H5          -2.7240     1.4480    -0.0000 hn         1 UNL       0.143000
@<TRIPOS>BOND
     1     1     2 1   
     2     1     4 1   
     3     1     7 1   
     4     2     3 1   
     5     2     8 1   
     6     3     6 1   
     7     3     9 1   
     8     4     5 1   
     9     4    11 1   
    10     5     6 1   
    11     5    12 1   
    12     6    10 1   
    13    10    14 1   
    14    11    13 1   
@<TRIPOS>SUBSTRUCTURE
     1 UNL         1 TEMP              0 ****  ****    0 ROOT
