@<TRIPOS>MOLECULE
UNL
   46    48     1     0     0
SMALL
bcc


@<TRIPOS>ATOM
      1 C           -1.7340     1.2890    -0.5280 ca         1 UNL      -0.148600
      2 C1          -2.6700     0.3010    -0.1770 ca         1 UNL      -0.056500
      3 C2          -0.3760     1.0430    -0.3190 ca         1 UNL      -0.056500
      4 C3           0.0680    -0.1630     0.2280 ca         1 UNL      -0.190600
      5 C4          -0.8780    -1.1320     0.5630 ca         1 UNL      -0.041000
      6 C5          -2.2490    -0.9220     0.3700 ca         1 UNL      -0.190600
      7 H           -3.7280     0.4910    -0.3400 ha         1 UNL       0.163000
      8 H1           0.3360     1.8140    -0.5940 ha         1 UNL       0.163000
      9 H2          -0.5360    -2.0730     0.9860 ha         1 UNL       0.158000
     10 C6           1.5330    -0.4380     0.4620 c          1 UNL       0.692200
     11 O            1.9380    -1.4760     0.9500 o          1 UNL      -0.605100
     12 N            2.3890     0.5560     0.1240 n          1 UNL      -0.473100
     13 C7           4.4110     1.7640     0.7250 ca         1 UNL      -0.212500
     14 C8           3.8110     0.5860     0.2810 ca         1 UNL       0.122600
     15 C9           5.7950     1.8330     0.8740 ca         1 UNL      -0.076000
     16 C10          6.5860     0.7270     0.5710 ca         1 UNL      -0.227000
     17 C11          5.9940    -0.4500     0.1120 ca         1 UNL       0.151100
     18 C12          4.6080    -0.5180    -0.0380 ca         1 UNL      -0.237000
     19 H3           3.7980     2.6310     0.9620 ha         1 UNL       0.153500
     20 H4           6.2560     2.7520     1.2260 ha         1 UNL       0.122500
     21 H5           7.6650     0.7880     0.6900 ha         1 UNL       0.123000
     22 H6           4.1490    -1.4320    -0.4080 ha         1 UNL       0.154000
     23 H7           1.9770     1.4160    -0.2060 hn         1 UNL       0.329500
     24 C13         -2.1470     2.6090    -1.1300 c          1 UNL       0.912200
     25 C14         -3.1930    -2.0410     0.7550 c          1 UNL       0.692200
     26 O1          -2.7590    -3.0890     1.2000 o          1 UNL      -0.605100
     27 O2          -1.2780     3.4160    -1.4080 o          1 UNL      -0.818800
     28 O3          -3.3270     2.8200    -1.3190 o          1 UNL      -0.818800
     29 N1           6.7690    -1.5320    -0.1910 nh         1 UNL      -0.814200
     30 H8           7.7310    -1.5420     0.1280 hn         1 UNL       0.380050
     31 H9           6.3060    -2.4240    -0.3320 hn         1 UNL       0.380050
     32 N2          -4.5250    -1.8410     0.6000 n          1 UNL      -0.473100
     33 C15         -5.5890    -2.7710     0.8810 ca         1 UNL       0.122600
     34 H10         -4.8420    -0.9260     0.3220 hn         1 UNL       0.329500
     35 C16         -5.5120    -4.1080     0.4770 ca         1 UNL      -0.212500
     36 C17         -6.7480    -2.3230     1.5250 ca         1 UNL      -0.237000
     37 C18         -6.5650    -4.9890     0.7320 ca         1 UNL      -0.076000
     38 C19         -7.7110    -4.5440     1.3870 ca         1 UNL      -0.227000
     39 C20         -7.8090    -3.2040     1.7860 ca         1 UNL       0.151100
     40 H11         -4.6330    -4.4720    -0.0450 ha         1 UNL       0.153500
     41 H12         -6.4920    -6.0260     0.4150 ha         1 UNL       0.122500
     42 H13         -6.8170    -1.2780     1.8260 ha         1 UNL       0.154000
     43 H14         -8.5240    -5.2440     1.5790 ha         1 UNL       0.123000
     44 N3          -8.6960    -2.7930     2.3060 nh         1 UNL      -0.814200
     45 H15         -8.6560    -2.9870     1.3070 hn         1 UNL       0.380050
     46 H16         -7.9820    -3.3670     2.7500 hn         1 UNL       0.380050
@<TRIPOS>BOND
     1     1     2 ar  
     2     1     3 ar  
     3     1    24 1   
     4     2     6 ar  
     5     2     7 1   
     6     3     4 ar  
     7     3     8 1   
     8     4     5 ar  
     9     4    10 1   
    10     5     6 ar  
    11     5     9 1   
    12     6    25 1   
    13    10    11 2   
    14    10    12 1   
    15    12    14 1   
    16    12    23 1   
    17    13    14 ar  
    18    13    15 ar  
    19    13    19 1   
    20    14    18 ar  
    21    15    16 ar  
    22    15    20 1   
    23    16    17 ar  
    24    16    21 1   
    25    17    18 ar  
    26    17    29 1   
    27    18    22 1   
    28    24    27 1   
    29    24    28 1   
    30    25    26 2   
    31    25    32 1   
    32    29    30 1   
    33    29    31 1   
    34    32    33 1   
    35    32    34 1   
    36    33    35 ar  
    37    33    36 ar  
    38    35    37 ar  
    39    35    40 1   
    40    36    39 ar  
    41    36    42 1   
    42    37    38 ar  
    43    37    41 1   
    44    38    39 ar  
    45    38    43 1   
    46    39    44 1   
    47    44    45 1   
    48    44    46 1   
@<TRIPOS>SUBSTRUCTURE
     1 UNL         1 TEMP              0 ****  ****    0 ROOT
