@<TRIPOS>MOLECULE
UNL
   17    17     1     0     0
SMALL
bcc


@<TRIPOS>ATOM
      1 C           -8.6950     2.5270    -0.0490 ca         1 UNL       0.111500
      2 C1          -7.4430     3.1540    -0.0060 ca         1 UNL      -0.099000
      3 C2          -6.2910     2.3610     0.0210 ca         1 UNL       0.111500
      4 C3          -8.7940     1.1360    -0.0650 ca         1 UNL      -0.176500
      5 C4          -7.6350     0.3580    -0.0370 ca         1 UNL       0.101000
      6 C5          -6.3820     0.9700     0.0060 ca         1 UNL      -0.176500
      7 H           -9.6070     3.1190    -0.0710 ha         1 UNL       0.240000
      8 H1          -5.3100     2.8300     0.0540 ha         1 UNL       0.240000
      9 H2          -7.7100    -0.7270    -0.0490 ha         1 UNL       0.209000
     10 C6         -10.1430     0.5010    -0.1100 c1         1 UNL       0.473000
     11 C7          -5.1310     0.1570     0.0360 c1         1 UNL       0.473000
     12 C8          -7.3090     4.6520     0.0110 c2         1 UNL       0.340000
     13 O           -6.2440     5.2310     0.0480 o          1 UNL      -0.255000
     14 O1         -10.3430    -0.6970    -0.1270 o          1 UNL       0.197500
     15 O2          -5.0960    -1.0570     0.0260 o          1 UNL       0.197500
     16 O3          -8.4300     5.3200    -0.0170 oh         1 UNL      -0.297000
     17 H3          -8.1840     6.2630    -0.0010 ho         1 UNL       0.310000
@<TRIPOS>BOND
     1     1     2 1   
     2     1     4 1   
     3     1     7 1   
     4     2     3 1   
     5     2    12 1   
     6     3     6 1   
     7     3     8 1   
     8     4     5 1   
     9     4    10 1   
    10     5     6 1   
    11     5     9 1   
    12     6    11 1   
    13    10    14 1   
    14    11    15 1   
    15    12    13 1   
    16    12    16 1   
    17    16    17 1   
@<TRIPOS>SUBSTRUCTURE
     1 UNL         1 TEMP              0 ****  ****    0 ROOT
