@<TRIPOS>MOLECULE
UNL
   19    19     1     0     0
SMALL
bcc


@<TRIPOS>ATOM
      1 C           -8.3350     2.5040    -0.0390 ca         1 UNL       0.058000
      2 C1          -7.1190     3.1960     0.0040 ca         1 UNL      -0.140500
      3 C2          -5.9200     2.4580     0.0330 ca         1 UNL       0.062000
      4 C3          -8.3640     1.1140    -0.0520 ca         1 UNL      -0.207000
      5 C4          -7.1700     0.3980    -0.0230 ca         1 UNL       0.058000
      6 C5          -5.9340     1.0520     0.0200 ca         1 UNL      -0.140500
      7 H           -9.2800     3.0420    -0.0620 ha         1 UNL       0.204000
      8 H1          -4.9720     2.9890     0.0660 ha         1 UNL       0.205000
      9 H2          -7.2090    -0.6900    -0.0330 ha         1 UNL       0.204000
     10 C6          -9.6800     0.4130    -0.0970 c1         1 UNL       0.477000
     11 C7          -4.6900     0.1890     0.0500 c2         1 UNL       0.338500
     12 C8          -7.1070     4.7090     0.0170 c2         1 UNL       0.338500
     13 O           -6.0880     5.3670     0.0540 o          1 UNL      -0.272000
     14 O1          -9.8190    -0.7930    -0.1120 o          1 UNL       0.107000
     15 O2          -4.7420    -1.0240     0.0370 o          1 UNL      -0.272000
     16 O3          -8.2870     5.2870    -0.0130 oh         1 UNL      -0.271000
     17 H3          -8.1840     6.2630    -0.0010 ho         1 UNL       0.260500
     18 O4          -3.5190     0.7760     0.0900 oh         1 UNL      -0.271000
     19 H4          -3.6150     1.7330     0.0950 ho         1 UNL       0.260500
@<TRIPOS>BOND
     1     1     2 1   
     2     1     4 1   
     3     1     7 1   
     4     2     3 1   
     5     2    12 1   
     6     3     6 1   
     7     3     8 1   
     8     4     5 1   
     9     4    10 1   
    10     5     6 1   
    11     5     9 1   
    12     6    11 1   
    13    10    14 1   
    14    11    15 1   
    15    11    18 1   
    16    12    13 1   
    17    12    16 1   
    18    16    17 1   
    19    18    19 1   
@<TRIPOS>SUBSTRUCTURE
     1 UNL         1 TEMP              0 ****  ****    0 ROOT
