@<TRIPOS>MOLECULE
UNL
   32    33     1     0     0
SMALL
bcc


@<TRIPOS>ATOM
      1 C           -1.2330     1.8750    -0.4820 ca         1 UNL      -0.164100
      2 C1          -2.2170     0.9460    -0.1270 ca         1 UNL      -0.036000
      3 C2           0.1130     1.5430    -0.3040 ca         1 UNL      -0.079000
      4 C3           0.4860     0.3000     0.2220 ca         1 UNL      -0.227600
      5 C4          -0.5150    -0.6120     0.5680 ca         1 UNL      -0.079000
      6 C5          -1.8670    -0.3030     0.3990 ca         1 UNL      -0.164100
      7 H           -3.2660     1.1960    -0.2620 ha         1 UNL       0.169000
      8 H1           0.8710     2.2690    -0.5830 ha         1 UNL       0.143000
      9 H2          -0.2370    -1.5810     0.9770 ha         1 UNL       0.143000
     10 C6           1.9290    -0.0840     0.4240 c          1 UNL       0.706700
     11 O            2.2490    -1.1610     0.8880 o          1 UNL      -0.623100
     12 N            2.8580     0.8400     0.0860 n          1 UNL      -0.481100
     13 C7           5.0060     1.8200     0.6820 ca         1 UNL      -0.237000
     14 C8           4.2800     0.7290     0.2020 ca         1 UNL       0.145600
     15 C9           6.3930     1.7490     0.7860 ca         1 UNL      -0.079000
     16 C10          7.0650     0.5900     0.4020 ca         1 UNL      -0.245000
     17 C11          6.3470    -0.5000    -0.0910 ca         1 UNL       0.135600
     18 C12          4.9580    -0.4290    -0.1950 ca         1 UNL      -0.234000
     19 H3           4.4910     2.7300     0.9820 ha         1 UNL       0.133000
     20 H4           6.9540     2.5990     1.1660 ha         1 UNL       0.110000
     21 H5           8.1480     0.5420     0.4850 ha         1 UNL       0.111000
     22 H6           4.4040    -1.2760    -0.5920 ha         1 UNL       0.178000
     23 H7           2.5310     1.7430    -0.2200 hn         1 UNL       0.332500
     24 C13         -1.5850     3.2240    -1.0500 c          1 UNL       0.907700
     25 C14         -2.9070    -1.3200     0.7880 c          1 UNL       0.907700
     26 O1          -2.6360    -2.4110     1.2470 o          1 UNL      -0.850550
     27 O2          -4.1490    -0.9550     0.6000 o          1 UNL      -0.850550
     28 O3          -0.7540     4.0520    -1.3660 o          1 UNL      -0.850550
     29 O4          -2.8640     3.4630    -1.1860 o          1 UNL      -0.850550
     30 N1           7.0050    -1.6330    -0.4750 nh         1 UNL      -0.808200
     31 H8           7.9810    -1.7390    -0.2200 hn         1 UNL       0.367800
     32 H9           6.4640    -2.4730    -0.6480 hn         1 UNL       0.367800
@<TRIPOS>BOND
     1     1     2 ar  
     2     1     3 ar  
     3     1    24 1   
     4     2     6 ar  
     5     2     7 1   
     6     3     4 ar  
     7     3     8 1   
     8     4     5 ar  
     9     4    10 1   
    10     5     6 ar  
    11     5     9 1   
    12     6    25 1   
    13    10    11 2   
    14    10    12 1   
    15    12    14 1   
    16    12    23 1   
    17    13    14 ar  
    18    13    15 ar  
    19    13    19 1   
    20    14    18 ar  
    21    15    16 ar  
    22    15    20 1   
    23    16    17 ar  
    24    16    21 1   
    25    17    18 ar  
    26    17    30 1   
    27    18    22 1   
    28    24    28 1   
    29    24    29 1   
    30    25    26 1   
    31    25    27 1   
    32    30    31 1   
    33    30    32 1   
@<TRIPOS>SUBSTRUCTURE
     1 UNL         1 TEMP              0 ****  ****    0 ROOT
