@<TRIPOS>MOLECULE
UNL
   15    15     1     0     0
SMALL
bcc


@<TRIPOS>ATOM
      1 C           -7.0530     2.9790    -0.0000 ca         1 UNL      -0.262000
      2 C1          -5.8270     3.6430    -0.0000 ca         1 UNL      -0.073000
      3 C2          -4.6410     2.9070    -0.0000 ca         1 UNL      -0.262000
      4 C3          -7.0990     1.5850    -0.0000 ca         1 UNL      -0.073000
      5 C4          -5.9100     0.8530    -0.0000 ca         1 UNL      -0.262000
      6 C5          -4.6790     1.5130    -0.0000 ca         1 UNL      -0.073000
      7 H           -7.9790     3.5500    -0.0000 ha         1 UNL       0.063000
      8 H1          -3.6810     3.4190     0.0000 ha         1 UNL       0.063000
      9 H2          -5.9420    -0.2350    -0.0000 ha         1 UNL       0.063000
     10 C6          -8.4240     0.8970    -0.0000 c1         1 UNL      -0.174000
     11 C7          -3.3970     0.7470    -0.0000 c1         1 UNL      -0.174000
     12 C8          -5.8030     5.1350    -0.0000 c1         1 UNL      -0.174000
     13 O           -4.7910     5.8070     0.0000 o          1 UNL      -0.553000
     14 O1          -8.5770    -0.3080    -0.0000 o          1 UNL      -0.553000
     15 O2          -3.3170    -0.4640    -0.0000 o          1 UNL      -0.553000
@<TRIPOS>BOND
     1     1     2 1   
     2     1     4 1   
     3     1     7 1   
     4     2     3 1   
     5     2    12 1   
     6     3     6 1   
     7     3     8 1   
     8     4     5 1   
     9     4    10 1   
    10     5     6 1   
    11     5     9 1   
    12     6    11 1   
    13    10    14 1   
    14    11    15 1   
    15    12    13 1   
@<TRIPOS>SUBSTRUCTURE
     1 UNL         1 TEMP              0 ****  ****    0 ROOT
